powerfactory/powerfactory-converter/src/test/resources/TwoWindingsTransformerActivePowerControl.xiidm
<?xml version="1.0" encoding="UTF-8"?>
<iidm:network xmlns:iidm="http://www.powsybl.org/schema/iidm/1_18" id="TwoWindingsTransformerActivePowerControl" caseDate="2021-01-01T10:00:00.000+02:00" forecastDistance="0" sourceFormat="POWER-FACTORY" minimumValidationLevel="STEADY_STATE_HYPOTHESIS">
    <iidm:substation id="S50">
        <iidm:voltageLevel id="VL50" nominalV="400.0" topologyKind="NODE_BREAKER">
            <iidm:nodeBreakerTopology>
                <iidm:busbarSection id="VL50_Bus 1-Slack" node="0"/>
                <iidm:internalConnection node1="0" node2="1"/>
                <iidm:internalConnection node1="0" node2="2"/>
                <iidm:internalConnection node1="0" node2="3"/>
                <iidm:internalConnection node1="0" node2="4"/>
            </iidm:nodeBreakerTopology>
            <iidm:generator id="Gen_1_1" energySource="OTHER" minP="0.0" maxP="50.470001220703125" targetP="50.470001220703125" localTargetV="423.9999771118164" localTargetQ="0.0" node="4">
                <iidm:minMaxReactiveLimits minQ="0.0" maxQ="0.0"/>
                <iidm:voltageRegulation mode="VOLTAGE" regulating="true"/>
            </iidm:generator>
        </iidm:voltageLevel>
    </iidm:substation>
    <iidm:substation id="S51">
        <iidm:voltageLevel id="VL51" nominalV="400.0" topologyKind="NODE_BREAKER">
            <iidm:nodeBreakerTopology>
                <iidm:busbarSection id="VL51_Bus 2" node="0"/>
                <iidm:internalConnection node1="0" node2="1"/>
                <iidm:internalConnection node1="0" node2="2"/>
                <iidm:internalConnection node1="0" node2="3"/>
                <iidm:internalConnection node1="0" node2="4"/>
            </iidm:nodeBreakerTopology>
            <iidm:load id="Load_2L_1" loadType="UNDEFINED" p0="50.0" q0="25.0" node="2"/>
        </iidm:voltageLevel>
        <iidm:voltageLevel id="VL55" nominalV="20.0" topologyKind="NODE_BREAKER">
            <iidm:nodeBreakerTopology>
                <iidm:busbarSection id="VL55_Bus 2L" node="0"/>
                <iidm:internalConnection node1="0" node2="1"/>
                <iidm:internalConnection node1="0" node2="2"/>
            </iidm:nodeBreakerTopology>
        </iidm:voltageLevel>
        <iidm:twoWindingsTransformer id="T2w_2_2L_1" r="0.00128" x="0.12204038771979611" g="0.0215" b="-0.19875048424748015" ratedU1="165.0" ratedU2="165.0" ratedS="400.0" voltageLevelId1="VL51" node1="3" voltageLevelId2="VL55" node2="1">
            <iidm:phaseTapChanger regulating="true" tapPosition="1" targetDeadband="10.0" loadTapChangingCapabilities="true" regulationMode="ACTIVE_POWER_CONTROL" regulationValue="50.0">
                <iidm:terminalRef id="T2w_2_2L_1" side="ONE"/>
                <iidm:step rho="1.0" alpha="-5.001999855041504"/>
                <iidm:step rho="1.0" alpha="0.0"/>
                <iidm:step rho="1.0" alpha="5.001999855041504"/>
            </iidm:phaseTapChanger>
        </iidm:twoWindingsTransformer>
        <iidm:twoWindingsTransformer id="T2w_2_2L_2" r="0.00128" x="0.12204038771979611" g="0.0215" b="-0.19875048424748015" ratedU1="165.0" ratedU2="165.0" ratedS="400.0" voltageLevelId1="VL51" node1="4" voltageLevelId2="VL55" node2="2">
            <iidm:phaseTapChanger regulating="true" tapPosition="1" targetDeadband="0.0" loadTapChangingCapabilities="true" regulationMode="ACTIVE_POWER_CONTROL" regulationValue="50.0">
                <iidm:terminalRef id="T2w_2_2L_2" side="ONE"/>
                <iidm:step rho="1.0" alpha="-5.001999855041504"/>
                <iidm:step rho="1.0" alpha="0.0"/>
                <iidm:step rho="1.0" alpha="5.001999855041504"/>
            </iidm:phaseTapChanger>
        </iidm:twoWindingsTransformer>
    </iidm:substation>
    <iidm:substation id="S52">
        <iidm:voltageLevel id="VL52" nominalV="400.0" topologyKind="NODE_BREAKER">
            <iidm:nodeBreakerTopology>
                <iidm:busbarSection id="VL52_Bus 3" node="0"/>
                <iidm:internalConnection node1="0" node2="1"/>
                <iidm:internalConnection node1="0" node2="2"/>
                <iidm:internalConnection node1="0" node2="3"/>
                <iidm:internalConnection node1="0" node2="4"/>
            </iidm:nodeBreakerTopology>
            <iidm:load id="Load_3L_1" loadType="UNDEFINED" p0="50.0" q0="25.0" node="2"/>
        </iidm:voltageLevel>
        <iidm:voltageLevel id="VL56" nominalV="20.0" topologyKind="NODE_BREAKER">
            <iidm:nodeBreakerTopology>
                <iidm:busbarSection id="VL56_Bus 3L" node="0"/>
                <iidm:internalConnection node1="0" node2="1"/>
                <iidm:internalConnection node1="0" node2="2"/>
            </iidm:nodeBreakerTopology>
        </iidm:voltageLevel>
        <iidm:twoWindingsTransformer id="T2w_3_3L_1" r="0.00128" x="0.12204038771979611" g="0.0215" b="-0.19875048424748015" ratedU1="165.0" ratedU2="165.0" ratedS="400.0" voltageLevelId1="VL52" node1="3" voltageLevelId2="VL56" node2="1">
            <iidm:phaseTapChanger regulating="true" tapPosition="1" targetDeadband="10.0" loadTapChangingCapabilities="true" regulationMode="ACTIVE_POWER_CONTROL" regulationValue="55.0">
                <iidm:terminalRef id="T2w_3_3L_1" side="TWO"/>
                <iidm:step rho="1.0" alpha="-5.001999855041504"/>
                <iidm:step rho="1.0" alpha="0.0"/>
                <iidm:step rho="1.0" alpha="5.001999855041504"/>
            </iidm:phaseTapChanger>
        </iidm:twoWindingsTransformer>
        <iidm:twoWindingsTransformer id="T2w_3_3L_2" r="0.00128" x="0.12204038771979611" g="0.0215" b="-0.19875048424748015" ratedU1="165.0" ratedU2="165.0" ratedS="400.0" voltageLevelId1="VL52" node1="4" voltageLevelId2="VL56" node2="2">
            <iidm:phaseTapChanger regulating="false" tapPosition="1" targetDeadband="10.0" loadTapChangingCapabilities="true" regulationMode="ACTIVE_POWER_CONTROL">
                <iidm:terminalRef id="T2w_3_3L_2" side="TWO"/>
                <iidm:step rho="1.0" alpha="-5.001999855041504"/>
                <iidm:step rho="1.0" alpha="0.0"/>
                <iidm:step rho="1.0" alpha="5.001999855041504"/>
            </iidm:phaseTapChanger>
        </iidm:twoWindingsTransformer>
    </iidm:substation>
    <iidm:substation id="S53">
        <iidm:voltageLevel id="VL53" nominalV="400.0" topologyKind="NODE_BREAKER">
            <iidm:nodeBreakerTopology>
                <iidm:busbarSection id="VL53_Bus 4" node="0"/>
                <iidm:internalConnection node1="0" node2="1"/>
                <iidm:internalConnection node1="0" node2="2"/>
            </iidm:nodeBreakerTopology>
        </iidm:voltageLevel>
    </iidm:substation>
    <iidm:substation id="S54">
        <iidm:voltageLevel id="VL54" nominalV="400.0" topologyKind="NODE_BREAKER">
            <iidm:nodeBreakerTopology>
                <iidm:busbarSection id="VL54_Bus 5" node="0"/>
                <iidm:internalConnection node1="0" node2="1"/>
                <iidm:internalConnection node1="0" node2="2"/>
                <iidm:internalConnection node1="0" node2="3"/>
                <iidm:internalConnection node1="0" node2="4"/>
            </iidm:nodeBreakerTopology>
            <iidm:load id="Load_5L_1" loadType="UNDEFINED" p0="50.0" q0="25.0" node="2"/>
        </iidm:voltageLevel>
        <iidm:voltageLevel id="VL57" nominalV="20.0" topologyKind="NODE_BREAKER">
            <iidm:nodeBreakerTopology>
                <iidm:busbarSection id="VL57_Bus 5L" node="0"/>
                <iidm:internalConnection node1="0" node2="1"/>
                <iidm:internalConnection node1="0" node2="2"/>
            </iidm:nodeBreakerTopology>
        </iidm:voltageLevel>
        <iidm:twoWindingsTransformer id="T2w_5_5L_1" r="0.00128" x="0.12204038771979611" g="0.0215" b="-0.19875048424748015" ratedU1="165.0" ratedU2="165.0" ratedS="400.0" voltageLevelId1="VL54" node1="3" voltageLevelId2="VL57" node2="1">
            <iidm:phaseTapChanger regulating="true" tapPosition="1" targetDeadband="10.0" loadTapChangingCapabilities="true" regulationMode="ACTIVE_POWER_CONTROL" regulationValue="60.0">
                <iidm:terminalRef id="Line_1_4_1" side="ONE"/>
                <iidm:step rho="1.0" alpha="-5.001999855041504"/>
                <iidm:step rho="1.0" alpha="0.0"/>
                <iidm:step rho="1.0" alpha="5.001999855041504"/>
            </iidm:phaseTapChanger>
        </iidm:twoWindingsTransformer>
        <iidm:twoWindingsTransformer id="T2w_5_5L_2" r="0.00128" x="0.12204038771979611" g="0.0215" b="-0.19875048424748015" ratedU1="165.0" ratedU2="165.0" ratedS="400.0" voltageLevelId1="VL54" node1="4" voltageLevelId2="VL57" node2="2">
            <iidm:phaseTapChanger regulating="false" tapPosition="1" loadTapChangingCapabilities="true" regulationMode="CURRENT_LIMITER">
                <iidm:step rho="1.0" alpha="-5.001999855041504"/>
                <iidm:step rho="1.0" alpha="0.0"/>
                <iidm:step rho="1.0" alpha="5.001999855041504"/>
            </iidm:phaseTapChanger>
        </iidm:twoWindingsTransformer>
    </iidm:substation>
    <iidm:line id="Line_1_2_1" r="31.007963180541992" x="94.67198181152344" b1="1.0815001583099366E-4" b2="1.0815001583099366E-4" voltageLevelId1="VL50" node1="1" voltageLevelId2="VL51" node2="1"/>
    <iidm:line id="Line_1_3_1" r="31.007963180541992" x="94.67198181152344" b1="1.0815001583099366E-4" b2="1.0815001583099366E-4" voltageLevelId1="VL50" node1="2" voltageLevelId2="VL52" node2="1"/>
    <iidm:line id="Line_1_4_1" r="31.007963180541992" x="94.67198181152344" b1="1.0815001583099366E-4" b2="1.0815001583099366E-4" voltageLevelId1="VL50" node1="3" voltageLevelId2="VL53" node2="1"/>
    <iidm:line id="Line_4_5_1" r="31.007963180541992" x="94.67198181152344" b1="1.0815001583099366E-4" b2="1.0815001583099366E-4" voltageLevelId1="VL53" node1="2" voltageLevelId2="VL54" node2="1"/>
</iidm:network>